!!>>>>>>>>>>>>>>>>>>>>>>>>>>>>>>>>>>>>>>>>>>>>>>>>>>>>>>>>>>>>>>>>>>>>>>
!! NEMO/OPA  : GYRE_PISCES Configuration namelist to overwrite reference dynamical namelist
!!>>>>>>>>>>>>>>>>>>>>>>>>>>>>>>>>>>>>>>>>>>>>>>>>>>>>>>>>>>>>>>>>>>>>>>

!-----------------------------------------------------------------------
&namcfg     !   parameters of the configuration   
!-----------------------------------------------------------------------
   cp_cfg      =  "mackenzie"            !  name of the configuration
   jp_cfg      =       1                 !  resolution of the configuration
   jpidta      =     255                 !  1st lateral dimension ( >= jpi ) = 30*jp_cfg+2
   jpjdta      =     190                 !  2nd    "         "    ( >= jpj ) = 20*jp_cfg+2 
   jpkdta      =      80                 !  number of levels      ( >= jpk )
   jpiglo      =     255                 !  1st dimension of global domain --> i  = jpidta
   jpjglo      =     190                 !  2nd    -                  -    --> j  = jpjdta
   jpizoom     =       1                 !  left bottom (i,j) indices of the zoom
   jpjzoom     =       1                 !  in data domain indices
   jperio      =       1                 !  lateral cond. type (between 0 and 6)
                                         !  = 0 closed                 ;   = 1 cyclic East-West
                                         !  = 2 equatorial symmetric   ;   = 3 North fold T-point pivot
                                         !  = 4 cyclic East-West AND North fold T-point pivot
                                         !  = 5 North fold F-point pivot
                                         !  = 6 cyclic East-West AND North fold F-point pivot
/
!-----------------------------------------------------------------------
&namzgr        !   vertical coordinate
!-----------------------------------------------------------------------
   ln_zco      = .false.    !  z-coordinate - full    steps   (T/F)      ("key_zco" may also be defined)
   ln_zps      = .true.     !  z-coordinate - partial steps   (T/F)
/
!-----------------------------------------------------------------------
&namzgr_sco    !   s-coordinate or hybrid z-s-coordinate
!-----------------------------------------------------------------------
/
!-----------------------------------------------------------------------
&namdom        !   space and time domain (bathymetry, mesh, timestep)
!-----------------------------------------------------------------------
   nn_bathy    =    1                    !  compute (=0) or read (=1) the bathymetry file
   nn_msh      =    1                    !  create (=1) a mesh file or not (=0)
   rn_rdt      =  120.     !  time step for the dynamics (and tracer if nn_acc=0)
   rn_rdtmin   =  120.           !  minimum time step on tracers (used if nn_acc=1)
   rn_rdtmax   =  120.           !  maximum time step on tracers (used if nn_acc=1)
   rn_hmin     =   8.75    !  min depth of the ocean (>0) or min number of ocean level (<0)
   rn_e3zps_min=   5.0     !  partial step thickness is set larger than the minimum of
   rn_e3zps_rat=   0.25    !  rn_e3zps_min and rn_e3zps_rat*e3t, with 0<rn_e3zps_rat<1
   jphgr_msh   =       0                 !  type of horizontal mesh
   ppglam0     =       0.0               !  longitude of first raw and column T-point (jphgr_msh = 1)
   ppgphi0     =      29.0               ! latitude  of first raw and column T-point (jphgr_msh = 1)
   ppe1_deg    =  999999.0               !  zonal      grid-spacing (degrees)
   ppe2_deg    =  999999.0               !  meridional grid-spacing (degrees)
   ppe1_m      =  999999.0               !  zonal      grid-spacing (degrees)
   ppe2_m      =  999999.0               !  meridional grid-spacing (degrees)
   ppsur       =  999999.0               !  ORCA r4, r2 and r05 coefficients
   ppa0        =  999999.0               ! (default coefficients)
   ppa1        =  999999.0               ! (default coefficients)
   ppkth       =  62.0                   ! (non dimensional) IAM The first depth interval
                                         ! where the profile stretches to reach pphmax
   ppacr       =  1.0                    ! (non dimensional) IAM The higher the ppacr,
                                         ! the deeper the ppkth (more spaced out above ppkth)
   ppdzmin     =  8.75                   ! (meters): depth of the top (first) model layer depth of second "w" level
   pphmax      =  1300.0                 ! (meters): maximum depth of the ocean depth of the last "w" level
   ldbletanh   =  .FALSE.                ! Use/do not use double tanf function for vertical coordinates
   ppa2        =  999999.0               ! Double tanh function parameters
   ppkth2      =  999999.0               !
   ppacr2      =  999999.0               !
/
!-----------------------------------------------------------------------
&namsplit      !   time splitting parameters                            ("key_dynspg_ts")
!-----------------------------------------------------------------------
   ln_bt_fw      =    .TRUE.           !  Forward integration of barotropic equations
   ln_bt_av      =    .TRUE.           !  Time filtering of barotropic variables
   ln_bt_nn_auto =    .TRUE.           !  Set nn_baro automatically to be just below
                                       !  a user defined maximum courant number (rn_bt_cmax)
   nn_baro       =    4                !  Number of iterations of barotropic mode
                                       !  during rn_rdt seconds. Only used if ln_bt_nn_auto=F
   rn_bt_cmax    =    0.5              !  Maximum courant number allowed if ln_bt_nn_auto=T
   nn_bt_flt     =    1                !  Time filter choice
                                       !  = 0 None
                                       !  = 1 Boxcar over   nn_baro barotropic steps
                                       !  = 2 Boxcar over 2*nn_baro     "        "
/
!-----------------------------------------------------------------------
&namcrs        !   Grid coarsening for dynamics output and/or
               !   passive tracer coarsened online simulations
!-----------------------------------------------------------------------
/
!-----------------------------------------------------------------------
&namtsd    !   data : Temperature  & Salinity
!-----------------------------------------------------------------------
!-----------------------------------------------------------------------
!          !  file name                            ! frequency (hours) ! variable  ! time interp. !  clim  ! 'yearly'/ ! weights  ! rotation ! land/sea mask !
!          !                                       !  (if <0  months)  !   name    !   (logical)  !  (T/F) ! 'monthly' ! filename ! pairing  ! filename      !
   sn_tem  = 'temperature/temperature_for_agrif.nc',           1         ,'votemper' ,    .false.    , .true. , 'yearly'   , ''       ,   ''    ,    ''
   sn_sal  = 'salinity/salinity_for_agrif.nc',                 1         ,'vosaline' ,    .false.    , .true. , 'yearly'   , ''       ,   ''    ,    ''
   !
   cn_dir        = 'NEMO_files/'     !  root directory for the location of the runoff files
   ln_tsd_init   = .true.   !  Initialisation of ocean T & S with T &S input data (T) or not (F)
   ln_tsd_tradmp = .true.   !  damping of ocean T & S toward T &S input data (T) or not (F)
/
!-----------------------------------------------------------------------
&namsbc        !   Surface Boundary Condition (surface module)
!-----------------------------------------------------------------------
   nn_fsbc     = 1         !  frequency of surface boundary condition computation
   !                       !     (also = the frequency of sea-ice model call)
   ln_ana      = .true.    !  analytical formulation                    (T => fill namsbc_ana )
   ln_blk_core = .false.   !  CORE bulk formulation                     (T => fill namsbc_core)
   nn_ice      = 0         !  =0 no ice boundary condition   ,
   ln_rnf      = .false.   !  runoffs                                   (T => fill namsbc_rnf)
   ln_ssr      = .false.   !  Sea Surface Restoring on T and/or S       (T => fill namsbc_ssr)
   nn_fwb      = 0         !  FreshWater Budget: =0 unchecked
/
!-----------------------------------------------------------------------
&namsbc_ana    !   analytical surface boundary condition
!-----------------------------------------------------------------------
   nn_tau000   =   91440  !  seconds
   rn_utau0    =   -0.8   !  uniform value for the i-stress
   rn_utau1    =   -0.1
   rn_vtau0    =    0.0   !  uniform value for the j-stress
/
!-----------------------------------------------------------------------
&namsbc_flx    !   surface boundary condition : flux formulation
!-----------------------------------------------------------------------
/
!-----------------------------------------------------------------------
&namsbc_clio   !   namsbc_clio  CLIO bulk formulae
!-----------------------------------------------------------------------
/
!-----------------------------------------------------------------------
&namsbc_core   !   namsbc_core  CORE bulk formulae
!-----------------------------------------------------------------------
/
!-----------------------------------------------------------------------
&namsbc_mfs   !   namsbc_mfs  MFS bulk formulae
!-----------------------------------------------------------------------
/
!-----------------------------------------------------------------------
&namsbc_cpl    !   coupled ocean/atmosphere model                       ("key_oasis3")
!-----------------------------------------------------------------------
/
!-----------------------------------------------------------------------
&namtra_qsr    !   penetrative solar radiation
!-----------------------------------------------------------------------
   ln_qsr_rgb  = .false.   !  RGB (Red-Green-Blue) light penetration
   ln_qsr_2bd  = .true.    !  2 bands              light penetration
   nn_chldta   =      0    !  RGB : Chl data (=1) or cst value (=0)
/
!-----------------------------------------------------------------------
&namsbc_rnf    !   runoffs namelist surface boundary condition
!-----------------------------------------------------------------------
   ln_rnf_mouth = .false.   !  specific treatment at rivers mouths
/
!-----------------------------------------------------------------------
&namsbc_apr    !   Atmospheric pressure used as ocean forcing or in bulk
!-----------------------------------------------------------------------
/
!-----------------------------------------------------------------------
&namsbc_ssr    !   surface boundary condition : sea surface restoring
!-----------------------------------------------------------------------
   nn_sssr     =     0     !  add a damping     term in the surface freshwater flux (=2)
   rn_deds     =   -27.7   !  magnitude of the damping on salinity   [mm/day]
   ln_sssr_bnd =   .false. !  flag to bound erp term (associated with nn_sssr=2)
/
!-----------------------------------------------------------------------
&namsbc_alb    !   albedo parameters
!-----------------------------------------------------------------------
/
!-----------------------------------------------------------------------
&namberg       !   iceberg parameters
!-----------------------------------------------------------------------
/
!-----------------------------------------------------------------------
&namlbc        !   lateral momentum boundary condition
!-----------------------------------------------------------------------
   rn_shlat    =    0.5     !  shlat = 0  !  0 < shlat < 2  !  shlat = 2  !  2 < shlat
                            !  free slip  !   partial slip  !   no slip   ! strong slip
/
!-----------------------------------------------------------------------
&namcla        !   cross land advection
!-----------------------------------------------------------------------
/
!-----------------------------------------------------------------------
&namobc        !   open boundaries parameters                           ("key_obc")
!-----------------------------------------------------------------------
/
!-----------------------------------------------------------------------
&namagrif      !  AGRIF zoom                                            ("key_agrif")
!-----------------------------------------------------------------------
/
!-----------------------------------------------------------------------
&nam_tide      !    tide parameters (#ifdef key_tide)
!-----------------------------------------------------------------------
/
!-----------------------------------------------------------------------
&nambdy        !  unstructured open boundaries                          ("key_bdy")
!-----------------------------------------------------------------------
    nb_bdy         = 1            !  number of open boundary sets
    ln_coords_file = .false.      !  =T : read bdy coordinates from file
    cn_dyn2d       = 'flather'    !
    nn_dyn2d_dta   =  1                         !  = 0, bdy data are equal to the initial state
                                          		!  = 1, bdy data are read in 'bdydata   .nc' files
                                          		!  = 2, use tidal harmonic forcing data from files
                                          		!  = 3, use external data AND tidal harmonic forcing
    cn_dyn3d      =  'orlanski_w_sponge' !
    nn_dyn3d_dta  =  1                   !  = 0, bdy data are equal to the initial state
                                         !  = 1, bdy data are read in 'bdydata   .nc' files
    cn_tra        =  'neumann'           !
    nn_tra_dta    =  0                   !  = 0, bdy data are equal to the initial state
                                         !  = 1, bdy data are read in 'bdydata   .nc' files
    ln_tra_dmp    =.false.               ! open boudaries conditions for tracers
    ln_dyn3d_dmp  =.false.               ! open boundary condition for baroclinic velocities
    rn_time_dmp   =  365.                ! Damping time scale in days
    rn_time_dmp_out =  365.              ! Outflow damping time scale
    rn_max_sponge = 500                  ! max viscosity for sponge layer (m2/s)
    nn_rimwidth   = 1                    ! width of the relaxation zone
/
!-----------------------------------------------------------------------
&nambdy_dta      !  open boundaries - external data           ("key_bdy")
!-----------------------------------------------------------------------
!              !  file name      ! frequency (hours) ! variable   ! time interp.   !  clim  ! 'yearly'/   ! weights  ! rotation ! land/sea mask !
!              !                 !  (if <0  months)  !   name     !   (logical)    !  (T/F )! 'monthly'   ! filename ! pairing  ! filename      !
   bn_ssh =     'bdy2d_for_agrif' ,  1     , 'sossheig' ,     .false.    , .true. ,  'monthly'  ,    ''    ,   ''     , ''
   bn_u2d =     'bdy2d_for_agrif' ,  1     , 'vobtcrtx' ,     .false.    , .true. ,  'monthly'  ,    ''    ,   ''     , ''
   bn_v2d =     'bdy2d_for_agrif' ,  1     , 'vobtcrty' ,     .false.    , .true. ,  'monthly'  ,    ''    ,   ''     , ''
   bn_u3d  =    'bdy3d_for_agrif' ,  1     , 'vozocrtx' ,     .false.    , .true. ,  'monthly'  ,    ''    ,   ''     , ''
   bn_v3d  =    'bdy3d_for_agrif' ,  1     , 'vomecrty' ,     .false.    , .true. ,  'monthly'  ,    ''    ,   ''     , ''
   bn_tem  =    'bdy3d_for_agrif' ,  1     , 'votemper' ,     .false.    , .true. ,  'monthly'  ,    ''    ,   ''     , ''
   bn_sal  =    'bdy3d_for_agrif' ,  1     , 'vosaline' ,     .false.    , .true. ,  'monthly'  ,    ''    ,   ''     , ''
   cn_dir  =    'NEMO_files/bdy/'
   ln_full_vel = .false.		! =T => full velocities in 3D boundary conditions
                                        ! =F => baroclinic velocities in 3D boundary conditions
/
!-----------------------------------------------------------------------
&nambdy_index ! open boundaries - definition ("key_bdy")
!-----------------------------------------------------------------------
    ctypebdy = 'N'
    nbdyind   = -1    ! constant index
    nbdybeg   = 1     ! starting index
    nbdyend   = 255   ! ending index
/
!-----------------------------------------------------------------------
&nambdy_dta      !  open boundaries - external data           ("key_bdy")
!-----------------------------------------------------------------------
/
!-----------------------------------------------------------------------
&nambdy_tide     ! tidal forcing at open boundaries
!-----------------------------------------------------------------------
/
!-----------------------------------------------------------------------
&nambfr        !   bottom friction
!-----------------------------------------------------------------------
   nn_bfr      =    2      !  type of bottom friction :   = 0 : free slip,  = 1 : linear friction
/
!-----------------------------------------------------------------------
&nambbc        !   bottom temperature boundary condition
!-----------------------------------------------------------------------
   ln_trabbc   = .false.   !  Apply a geothermal heating at the ocean bottom
   nn_geoflx   =    0      !  geothermal heat flux: = 0 no flux
/
!-----------------------------------------------------------------------
&nambbl        !   bottom boundary layer scheme
!-----------------------------------------------------------------------
/
!-----------------------------------------------------------------------
&nameos        !   ocean physical parameters
!-----------------------------------------------------------------------
   nn_eos      =  -1       !  type of equation of state and Brunt-Vaisala frequency
                                 !  =-1, TEOS-10 
                                 !  = 0, EOS-80 
                                 !  = 1, S-EOS   (simplified eos)
   ln_useCT    = .true.  ! use of Conservative Temp. ==> surface CT converted in Pot. Temp. in sbcssm
   !                             !
   !                      ! S-EOS coefficients :
   !                             !  rd(T,S,Z)*rau0 = -a0*(1+.5*lambda*dT+mu*Z+nu*dS)*dT+b0*dS
   rn_a0       =  1.6550e-1      !  thermal expension coefficient (nn_eos= 1)
   rn_b0       =  7.6554e-1      !  saline  expension coefficient (nn_eos= 1)
   rn_lambda1  =  5.9520e-2      !  cabbeling coeff in T^2  (=0 for linear eos)
   rn_lambda2  =  7.4914e-4      !  cabbeling coeff in S^2  (=0 for linear eos)
   rn_mu1      =  1.4970e-4      !  thermobaric coeff. in T (=0 for linear eos)
   rn_mu2      =  1.1090e-5      !  thermobaric coeff. in S (=0 for linear eos)
   rn_nu       =  2.4341e-3      !  cabbeling coeff in T*S  (=0 for linear eos)
!!org GYRE   rn_alpha    =   2.0e-4  !  thermal expension coefficient (nn_eos= 1 or 2)
!!org GYRE   rn_beta     =   7.7e-4  !  saline  expension coefficient (nn_eos= 2)
!!org  caution  now a0 = alpha / rau0   with rau0 = 1026
/
!-----------------------------------------------------------------------
&namtra_adv    !   advection scheme for tracer
!-----------------------------------------------------------------------
   ln_traadv_cen2   =  .false.   !  2nd order centered scheme
   ln_traadv_tvd    =  .true.    !  TVD scheme
   ln_traadv_muscl  =  .false.   !  MUSCL scheme
   ln_traadv_muscl2 =  .false.   !  MUSCL2 scheme + cen2 at boundaries
   ln_traadv_ubs    =  .false.   !  UBS scheme
   ln_traadv_qck    =  .false.   !  QUICKEST scheme
   ln_traadv_msc_ups=  .false.   !  use upstream scheme within muscl
/
!-----------------------------------------------------------------------
&namtra_adv_mle !  mixed layer eddy parametrisation (Fox-Kemper param)
!-----------------------------------------------------------------------
/
!----------------------------------------------------------------------------------
&namtra_ldf    !   lateral diffusion scheme for tracers
!----------------------------------------------------------------------------------
   !                       !  Operator type:
   ln_traldf_lap    =  .true.   !  laplacian operator
   ln_traldf_bilap  =  .false.  !  bilaplacian operator
   !                       !  Direction of action:
   ln_traldf_level  =  .false.  !  iso-level
   ln_traldf_hor    =  .false.  !  horizontal (geopotential)   (needs "key_ldfslp" when ln_sco=T)
   ln_traldf_iso    =  .true.   !  iso-neutral                 (needs "key_ldfslp")
   !		       	   !  Griffies parameters              (all need "key_ldfslp")
   ln_traldf_grif   =  .false.  !  use griffies triads
   ln_traldf_gdia   =  .false.  !  output griffies eddy velocities
   ln_triad_iso     =  .false.  !  pure lateral mixing in ML
   ln_botmix_grif   =  .false.  !  lateral mixing on bottom
   !                       !  Coefficients
   ! Eddy-induced (GM) advection always used with Griffies; otherwise needs "key_traldf_eiv"
   ! Value rn_aeiv_0 is ignored unless = 0 with Held-Larichev spatially varying aeiv
   !                                  (key_traldf_c2d & key_traldf_eiv & key_orca_r2, _r1 or _r05)
   rn_aeiv_0        =   50.     !  eddy induced velocity coefficient [m2/s]
   rn_aht_0         =   125.    !  horizontal eddy diffusivity for tracers [m2/s]
   rn_ahtb_0        =     0.    !  background eddy diffusivity for ldf_iso [m2/s]
   !                                           (normally=0; not used with Griffies)
   rn_slpmax        =     0.01  !  slope limit
   rn_chsmag        =     1.    !  multiplicative factor in Smagorinsky diffusivity
   rn_smsh          =     1.    !  Smagorinsky diffusivity: = 0 - use only sheer
   rn_aht_m         =  2000.    !  upper limit or stability criteria for lateral eddy diffusivity (m2/s)
/
!-----------------------------------------------------------------------
&namtra_dmp    !   tracer: T & S newtonian damping
!-----------------------------------------------------------------------
   ln_tradmp   =  .false.  !  add a damping termn (T) or not (F)
/
!-----------------------------------------------------------------------
&namdyn_adv    !   formulation of the momentum advection
!-----------------------------------------------------------------------
/
!-----------------------------------------------------------------------
&namdyn_vor    !   option of physics/algorithm (not control by CPP keys)
!-----------------------------------------------------------------------
   ln_dynvor_ene = .true.  !  energy    conserving scheme  
   ln_dynvor_ens = .false. !  enstrophy conserving scheme    
   ln_dynvor_een = .false. !  energy & enstrophy scheme
/
!-----------------------------------------------------------------------
&namdyn_hpg    !   Hydrostatic pressure gradient option
!-----------------------------------------------------------------------
   ln_hpg_zco  = .true.    !  z-coordinate - full steps
   ln_hpg_zps  = .false.   !  z-coordinate - partial steps (interpolation)
/
!-----------------------------------------------------------------------
!namdyn_spg    !   surface pressure gradient   (CPP key only)
!-----------------------------------------------------------------------

!-----------------------------------------------------------------------
&namdyn_ldf    !   lateral diffusion on momentum
!-----------------------------------------------------------------------
   !                       !  Type of the operator :
   ln_dynldf_lap    =  .true.   !  laplacian operator
   ln_dynldf_bilap  =  .false.  !  bilaplacian operator
   !                       !  Direction of action  :
   ln_dynldf_level  =  .false.  !  iso-level
   ln_dynldf_hor    =  .true.   !  horizontal (geopotential)            (require "key_ldfslp" in s-coord.)
   ln_dynldf_iso    =  .false.  !  iso-neutral                          (require "key_ldfslp")
   !                       !  Coefficient
   rn_ahm_0_lap     =   125.    !  horizontal laplacian eddy viscosity   [m2/s]
   rn_ahmb_0        =     0.    !  background eddy viscosity for ldf_iso [m2/s]
   rn_ahm_0_blp     =     0.    !  horizontal bilaplacian eddy viscosity [m4/s]
   rn_cmsmag_1      =     3.    !  constant in laplacian Smagorinsky viscosity
   rn_cmsmag_2      =     3     !  constant in bilaplacian Smagorinsky viscosity
   rn_cmsh          =     1.    !  1 or 0 , if 0 -use only shear for Smagorinsky viscosity
   rn_ahm_m_blp     =    -1.e12 !  upper limit for bilap  abs(ahm) < min( dx^4/128rdt, rn_ahm_m_blp)
   rn_ahm_m_lap     = 40000.    !  upper limit for lap  ahm < min(dx^2/16rdt, rn_ahm_m_lap)
/
!-----------------------------------------------------------------------
&namzdf        !   vertical physics
!-----------------------------------------------------------------------
   nn_evdm     =    1      !  evd apply on tracer (=0) or on tracer and momentum (=1)
/
!-----------------------------------------------------------------------
&namzdf_ric    !   richardson number dependent vertical diffusion       ("key_zdfric" )
!-----------------------------------------------------------------------
/
!-----------------------------------------------------------------------
&namzdf_tke    !   turbulent eddy kinetic dependent vertical diffusion  ("key_zdftke")
!-----------------------------------------------------------------------
   nn_etau     =   0       !  penetration of tke below the mixed layer (ML) due to internal & intertial waves
/
!------------------------------------------------------------------------
&namzdf_kpp    !   K-Profile Parameterization dependent vertical mixing  ("key_zdfkpp", and optionally:
!------------------------------------------------------------------------ "key_kppcustom" or "key_kpplktb")
/
!-----------------------------------------------------------------------
&namzdf_gls                !   GLS vertical diffusion                   ("key_zdfgls")
!-----------------------------------------------------------------------
/
!-----------------------------------------------------------------------
&namzdf_ddm    !   double diffusive mixing parameterization             ("key_zdfddm")
!-----------------------------------------------------------------------
/
!-----------------------------------------------------------------------
&namzdf_tmx    !   tidal mixing parameterization                        ("key_zdftmx")
!-----------------------------------------------------------------------
   ln_tmx_itf  = .false.   !  ITF specific parameterisation
/
!-----------------------------------------------------------------------
&namsol        !   elliptic solver / island / free surface
!-----------------------------------------------------------------------
   nn_solv     =      2    !  elliptic solver: =1 preconditioned conjugate gradient (pcg)
   nn_nmin     =    210    !  minimum of iterations for the SOR solver
   rn_sor      =  1.96     !  optimal coefficient for SOR solver (to be adjusted with the domain)
/
!-----------------------------------------------------------------------
&nammpp        !   Massively Parallel Processing                        ("key_mpp_mpi)
!-----------------------------------------------------------------------
   cn_mpi_send =  'I'      !  mpi send/recieve type   ='S', 'B', or 'I' for standard send,
                           !  buffer blocking send or immediate non-blocking sends, resp.
   nn_buffer   =   0       !  size in bytes of exported buffer ('B' case), 0 no exportation
   ln_nnogather=  .false.  !  activate code to avoid mpi_allgather use at the northfold
   jpni        =   7       !  jpni   number of processors following i (set automatically if < 1)
   jpnj        =   7       !  jpnj   number of processors following j (set automatically if < 1)
   jpnij       =   0       !  jpnij  number of local domains (set automatically if < 1)
/
!-----------------------------------------------------------------------
&namctl        !   Control prints & Benchmark
!-----------------------------------------------------------------------
/
!-----------------------------------------------------------------------
&namnc4        !   netcdf4 chunking and compression settings            ("key_netcdf4")
!-----------------------------------------------------------------------
   nn_nchunks_i=   1       !  number of chunks in i-dimension
   nn_nchunks_j=   1       !  number of chunks in j-dimension
   nn_nchunks_k=   1       !  number of chunks in k-dimension
                           !  setting nn_nchunks_k = jpk will give a chunk size of 1 in the vertical which
                           !  is optimal for postprocessing which works exclusively with horizontal slabs
   ln_nc4zip   = .true.    !  (T) use netcdf4 chunking and compression
                           !  (F) ignore chunking information and produce netcdf3-compatible files
/
!-----------------------------------------------------------------------
&namtrd        !   diagnostics on dynamics and/or tracer trends         ("key_trddyn" and/or "key_trdtra")
!              !       or mixed-layer trends or barotropic vorticity    ("key_trdmld" or     "key_trdvor")
!-----------------------------------------------------------------------
   ln_glo_trd  = .false.   ! (T) global domain averaged diag for T, T^2, KE, and PE
   ln_dyn_trd  = .false.   ! (T) 3D momentum trend output
   ln_dyn_mxl  = .FALSE.   ! (T) 2D momentum trends averaged over the mixed layer (not coded yet)
   ln_vor_trd  = .FALSE.   ! (T) 2D barotropic vorticity trends (not coded yet)
   ln_KE_trd   = .false.   ! (T) 3D Kinetic   Energy     trends
   ln_PE_trd   = .false.   ! (T) 3D Potential Energy     trends
   ln_tra_trd  = .false.    ! (T) 3D tracer trend output
   ln_tra_mxl  = .false.   ! (T) 2D tracer trends averaged over the mixed layer (not coded yet)
   nn_trd      = 365       !  print frequency (ln_glo_trd=T) (unit=time step)
/
!!gm   nn_ctls     =   0       !  control surface type in mixed-layer trends (0,1 or n<jpk)